Localizador/13Bus/IEEE13Nodeckt_FaultStudy.Txt
FAULT STUDY REPORT

ALL-Node Fault Currents

Bus      Node            Amps   X/R Node            Amps   X/R Node            Amps   X/R ...

"SOURCEBUS" 1          100419   4.0    2          100419   4.0    3          100419   4.0
"650"      1         2101889   4.6    2         2101888   4.6    3         2101889   4.6
"RG60"     1         1523439   2.5    2         1523439   2.5    3         1523439   2.5
"633"      1            7775   1.8    2            7614   2.9    3            6744   2.0
"634"      1           18419   1.7    2           18691   2.0    3           17723   1.8
"671"      1            5419   1.9    2            5327   4.3    3            4572   2.4
"645"      2            5658   1.1    3            5673   3.7
"646"      2            4661   0.9    3            4757   2.9
"692"      3            4572   2.4    1            5419   1.9    2            5327   4.3
"675"      1            4773   1.6    2            4811   3.2    3            4094   2.1
"611"      3            2248   1.8
"652"      1            2172   1.4
"670"      1            8127   2.0    2            8004   4.4    3            6882   2.5
"632"      1           10834   2.1    2           10685   4.4    3            9192   2.5
"680"      1            4282   1.9    2            4247   4.5    3            3616   2.5
"684"      1            3828   5.3    3            3783   1.1


ONE-Node to ground Faults

                                      pu Node Voltages (L-N Volts if no base)
Bus         Node  Amps         Node 1     Node 2     Node 3    ...

"SOURCEBUS"    1       105435          0.000      0.955      0.998
"SOURCEBUS"    2       105437          0.998      0.000      0.955
"SOURCEBUS"    3       105435          0.955      0.998      0.000
"650"          1      2810850          0.000      0.894      0.868
"650"          2      2810903          0.868      0.000      0.894
"650"          3      2810907          0.894      0.868      0.000
"RG60"         1      1859539          0.000      0.874      0.946
"RG60"         2      1859569          0.946      0.000      0.874
"RG60"         3      1859566          0.874      0.946      0.000
"633"          1         4462          0.000      1.266      1.187
"633"          2         4464          1.215      0.000      1.156
"633"          3         4353          1.195      1.198      0.000
"634"          1        15425          0.000      1.069      1.010
"634"          2        15682          1.016      0.000      1.010
"634"          3        15180          1.023      1.039      0.000
"671"          1         2931          0.000      1.280      1.187
"671"          2         2949          1.232      0.000      1.126
"671"          3         2827          1.153      1.240      0.000
"645"          2         4173          0.000      1.171
"645"          3         4056          1.169      0.000
"646"          2         3524          0.000      1.173
"646"          3         3421          1.149      0.000
"692"          3         2827          0.000      1.153      1.240
"692"          1         2931          1.187      0.000      1.280
"692"          2         2949          1.126      1.232      0.000
"675"          1         2701          0.000      1.262      1.171
"675"          2         2749          1.213      0.000      1.111
"675"          3         2614          1.129      1.237      0.000
"611"          3         2248          0.000
"652"          1         2172          0.000
"670"          1         4434          0.000      1.282      1.206
"670"          2         4417          1.251      0.000      1.144
"670"          3         4313          1.175      1.233      0.000
"632"          1         5933          0.000      1.284      1.218
"632"          2         5893          1.260      0.000      1.156
"632"          3         5792          1.186      1.230      0.000
"680"          1         2316          0.000      1.281      1.185
"680"          2         2348          1.230      0.000      1.129
"680"          3         2237          1.155      1.238      0.000
"684"          1         2594          0.000      1.162
"684"          3         2507          1.153      0.000

Adjacent Node-Node Faults

                                        pu Node Voltages (L-N Volts if no base)
Bus          Node-Node      Amps        Node 1     Node 2     Node 3    ...

"SOURCEBUS"   1   2       86964         0.500      0.500      1.000
"SOURCEBUS"   1   3       86963         0.500      1.000      0.500
"SOURCEBUS"   2   3       86964         1.000      0.500      0.500
"650"         1   2     1801757         0.536      0.464      1.000
"650"         1   3     1801767         0.464      1.000      0.536
"650"         2   3     1801810         1.000      0.536      0.464
"RG60"        1   2     1303280         0.525      0.475      1.000
"RG60"        1   3     1303289         0.475      1.000      0.525
"RG60"        2   3     1303323         1.000      0.525      0.475
"633"         1   2        6806         0.470      0.470      0.935
"633"         1   3        6360         0.485      1.029      0.486
"633"         2   3        5900         0.942      0.491      0.490
"634"         1   2       16150         0.476      0.471      0.929
"634"         1   3       15715         0.467      0.980      0.472
"634"         2   3       15531         0.930      0.479      0.474
"671"         1   2        4818         0.456      0.456      0.925
"671"         1   3        4289         0.465      1.033      0.466
"671"         2   3        4044         0.906      0.494      0.494
"645"         2   3        5463         0.489      0.489
"646"         2   3        4530         0.487      0.487
"692"         3   1        4289         0.466      0.465      1.033
"692"         3   2        4044         0.494      0.906      0.494
"692"         1   2        4818         0.925      0.456      0.456
"675"         1   2        4283         0.457      0.456      0.918
"675"         1   3        3808         0.464      1.036      0.464
"675"         2   3        3676         0.901      0.494      0.494
"670"         1   2        7254         0.464      0.464      0.941
"670"         1   3        6446         0.478      1.032      0.478
"670"         2   3        6051         0.928      0.494      0.494
"632"         1   2        9689         0.468      0.468      0.951
"632"         1   3        8603         0.485      1.031      0.486
"632"         2   3        8061         0.939      0.494      0.494
"680"         1   2        3827         0.463      0.463      0.921
"680"         1   3        3393         0.464      1.036      0.465
"680"         2   3        3210         0.906      0.490      0.490
"684"         1   3        3703         0.462      0.462
